Circuit: * C:\Users\stoff\source\repos\solaranlage\amp.asc

Direct Newton iteration failed to find .op point.  (Use ".option noopiter" to skip.)
Starting Gmin stepping
Gmin = 10
vernier = 0.5
Gmin = 1.86414
vernier = 0.25
vernier = 0.125
vernier = 0.0625
vernier = 0.03125
Gmin = 1.98679
vernier = 0.015625
vernier = 0.0078125
Gmin = 1.95985
vernier = 0.0104167
vernier = 0.0138889
Gmin = 1.90294
vernier = 0.0185185
vernier = 0.0246913
Gmin = 1.81565
vernier = 0.0329218
Gmin = 1.68649
vernier = 0.0438957
vernier = 0.0585276
Gmin = 1.49042
vernier = 0.0780367
vernier = 0.104049
Gmin = 1.22473
vernier = 0.138732
vernier = 0.0693659
vernier = 0.034683
Gmin = 1.02345
vernier = 0.0173415
vernier = 0.00867074
vernier = 0.00433537
Gmin = 1.01025
vernier = 0.00216769
Gmin = 1.00425
vernier = 0.00108384
vernier = 0.00144512
vernier = 0.000722562
Gmin = 1.00307
vernier = 0.000541921
vernier = 0.000406441
Gmin = 1.0022
Gmin = 0
Gmin stepping failed

Starting source stepping with srcstepmethod=0
Source Step = 3.0303%
Source Step = 33.3333%
Source Step = 63.6364%
Source Step = 93.9394%
Source stepping succeeded in finding the operating point.


Date: Wed Nov 11 17:36:08 2020
Total elapsed time: 3.769 seconds.

tnom = 27
temp = 27
method = modified trap
totiter = 108813
traniter = 103724
tranpoints = 33316
accept = 26175
rejected = 7141
matrix size = 258
fillins = 462
solver = Normal
Thread vector: 11.6/8.4[5] 6.3/3.7[5] 2.0/2.4[1] 1.6/1.5[2]  2592/500
Matrix Compiler1: 34.22 KB object code size  10.4/4.8/[2.8]
Matrix Compiler2: 26.61 KB object code size  3.6/4.6/[2.4]

