Circuit: * C:\Users\stoff\source\repos\solaranlage\Draft1.asc

Direct Newton iteration for .op point succeeded.

Date: Sun Feb 21 17:13:10 2021
Total elapsed time: 0.068 seconds.

tnom = 27
temp = 27
method = modified trap
totiter = 2091
traniter = 2082
tranpoints = 1042
accept = 1042
rejected = 0
matrix size = 8
fillins = 0
solver = Normal
Matrix Compiler1: 344 bytes object code size  0.1/0.1/[0.1]
Matrix Compiler2: off  [0.1]/0.1/0.1

